15
O[CH]1CCCC1 <=> OC1[CH]CCC1
C         -0.82273        0.00131       -0.24507
C          0.02768        1.21046        0.09391
C          1.47460        0.72363       -0.13044
H         -0.14112        1.44266        1.15578
H         -0.21333        2.10889       -0.48187
C          1.44405       -0.78090        0.23676
H          2.20289        1.28826        0.45484
H          1.74325        0.83794       -1.18560
C          0.05081       -1.20846       -0.15176
H         -0.37798       -0.66060       -1.28618
H         -0.38674       -2.18174        0.02566
H          1.58869       -0.90350        1.32092
H          2.23937       -1.34628       -0.25585
O         -2.13206       -0.10812        0.20331
H         -2.64506        0.60304       -0.19457

