15
O[CH]1CCCC1 <=> [O]C1CCCC1
C          0.84025       -0.02109        0.18205
C         -0.01104        1.24324        0.13534
C         -1.42330        0.74275       -0.24653
H          0.41417        1.94736       -0.58562
H         -0.01798        1.74881        1.10681
C         -1.44735       -0.73799        0.19084
H         -1.55296        0.80221       -1.33174
H         -2.22216        1.33173        0.20849
C         -0.02448       -1.23063       -0.11708
H          0.27398       -2.12172        0.43938
H          0.08673       -1.46678       -1.18585
H         -2.22125       -1.31689       -0.31716
H         -1.63843       -0.80743        1.26711
O          2.18025        0.00229       -0.18028
H          1.83141       -0.11327        0.97309

