15
[O]C1CCCC1 <=> OC1[CH]CCC1
C   -0.0451   -0.0818   -0.0308
C   -0.0436    0.0273    1.5083
C    1.4015   -0.0196    1.9486
C    2.2924   -0.0439    0.7144
C    1.3661   -0.5934   -0.3958
O   -0.1556    1.3829    2.0071
H    1.6653   -0.5509    2.8589
H    3.1852   -0.6558    0.8691
H    2.6405    0.9615    0.4559
H    1.3793   -1.6880   -0.3660
H    1.6829   -0.2930   -1.3975
H   -0.8341   -0.7380   -0.4048
H   -0.2197    0.9170   -0.4392
H   -0.7527   -0.6341    2.0106
H    1.0658    1.2377    2.3134

