18
O=C1CCCC1 + [CH3] <=> [O]C1(C)CCCC1
C    0.5240    0.0747   -0.0804
C    0.2929    0.1490    1.4462
C    1.6019   -0.3652    2.0759
C    2.2084   -1.3261    1.0107
C    1.3385   -1.2089   -0.2677
C    3.9068   -0.2354    0.3838
O    2.8270   -2.3602    1.3104
H    2.2808    0.4576    2.3084
H    1.4551   -0.9313    2.9973
H    0.6824   -2.0874   -0.2610
H    1.9245   -1.2531   -1.1859
H    0.0247    1.1531    1.7814
H   -0.5345   -0.5143    1.7182
H   -0.4116    0.0735   -0.6436
H    1.0995    0.9443   -0.4156
H    3.4638    0.6909    0.0359
H    4.3018   -0.9022   -0.3714
H    4.4606   -0.1913    1.3127

