18
[O]C1(C)CCCC1 <=> OC1(C)[CH]CCC1
C    0.1736    0.0545    0.0114
C    0.0765    0.0153    1.5543
C    1.4866   -0.3496    1.9918
C    2.2089   -1.0363    0.8484
C    1.2194   -1.0220   -0.3452
C    3.6361   -0.6337    0.5246
O    2.1703   -2.2902    1.5898
H    2.0591    0.2821    2.6674
H    1.5705   -1.6057    2.4697
H    0.7567   -2.0097   -0.4101
H    1.7149   -0.8215   -1.2980
H   -0.2537    0.9633    1.9879
H   -0.6470   -0.7437    1.8700
H   -0.7901   -0.1063   -0.4780
H    0.5366    1.0393   -0.3022
H    3.6700    0.3476    0.0413
H    4.0901   -1.3629   -0.1525
H    4.2374   -0.5987    1.4360

