18
O=C1CCCC1 + [CH3] <=> CO[C]1CCCC1
C   -0.5346   -1.2246   -0.2956
C    0.2794    0.0505   -0.4242
C   -0.5481    1.2438    0.0072
C   -1.9900    0.7076    0.0246
C   -1.8324   -0.7818    0.4077
O    1.5077    0.0941   -0.7233
H   -0.3932    2.1053   -0.6479
H   -0.2358    1.5561    1.0171
H   -2.4238    0.7872   -0.9778
H   -2.6458    1.2509    0.7080
H    0.0232   -1.9962    0.2464
H   -0.7383   -1.6366   -1.2934
H   -2.7009   -1.3824    0.1294
H   -1.7122   -0.8687    1.4929
C    2.7917   -0.0484    0.6303
H    2.5969   -1.0189    1.0711
H    3.6785    0.0160    0.0149
H    2.5953    0.8103    1.2608

