15
O=C1CCCC1 + [H] <=> [O]C1CCCC1
C   -0.1016    0.1879    0.1164
C   -0.0282   -0.0705    1.6344
C    1.4273    0.1965    2.0919
C    2.1619    0.6853    0.8286
C    1.3529    0.1094   -0.3571
O   -0.9930   -0.1468    2.3842
H    1.8687   -0.7172    2.4968
H    3.2107    0.3844    0.8036
H    2.1379    1.7789    0.7861
H    1.6318   -0.9361   -0.5274
H    1.5331    0.6510   -1.2874
H   -0.7996   -0.4834   -0.3835
H   -0.4916    1.2084    0.0061
H    0.1425   -1.8118    1.4312
H    1.4045    0.9247    2.9056

