15
OC1[CH]CCC1 <=> OC1=CCCC1 + [H]
C   -0.0604    0.0495    0.0709
C    0.1063    0.1457    1.5679
C    1.4160    0.0796    1.9333
C    2.2870   -0.2580    0.7536
C    1.2674   -0.6027   -0.3680
O   -0.9536    0.6065    2.2784
H    1.7878    0.2268    2.9405
H    2.9778   -1.0849    0.9494
H    2.9091    0.6053    0.4787
H    1.1342   -1.6860   -0.4100
H    1.5967   -0.2693   -1.3534
H   -0.9449   -0.5217   -0.2152
H   -0.1775    1.0639   -0.3306
H   -0.0929   -1.7174    1.8823
H   -0.7053    0.6826    3.2066


