14
O=C1CCCC1 <=> O=C([CH2])CC[CH2] 2.7A
C         -0.69365        1.29096        0.52943
C          1.61874        0.64289       -0.70461
C          0.14258       -1.09786        0.24193
C         -0.95679       -0.05604        0.07180
H          0.03710        1.50104        1.29466
H         -1.37793        2.06977        0.22857
C          1.52694       -0.45017        0.30431
H          0.06189       -1.75859       -0.62152
H         -0.06551       -1.70406        1.12503
H          2.29955       -1.20873        0.13273
H          1.72136       -0.04963        1.30098
H          2.29524        1.47317       -0.56951
H          1.23625        0.47350       -1.70172
O         -2.00436       -0.34690       -0.48079


