27
O=C1CCCC1 + O=C1[CH]CCC1 <=> OC1=CCCC1 + O=C1[CH]CCC1
C    3.1186    0.7038    0.6952
C    1.8829    0.9694   -0.1701
C    1.4788   -0.3189   -0.7729
C    2.5536   -1.3581   -0.5204
C    3.7444   -0.5649    0.0939
O    1.3290    2.0445   -0.3081
H    0.9498   -0.2866   -1.7229
H    2.8410   -1.8921   -1.4299
H    2.1979   -2.1214    0.1835
H    2.7675    0.5302    1.7205
H    3.7735    1.5755    0.7164
H    4.4394   -0.2840   -0.7030
H    4.3052   -1.1541    0.8214
C   -1.9397    0.9097    0.2625
C   -1.6542   -0.5785    0.2865
C   -2.7734   -1.3075    0.0103
C   -3.9694   -0.4187   -0.1593
C   -3.3428    0.9864   -0.3787
O   -0.4985   -1.0892    0.6494
H   -2.7983   -2.3899    0.0052
H   -4.6017   -0.4380    0.7405
H   -4.6141   -0.7305   -0.9878
H   -1.1701    1.4650   -0.2807
H   -1.9295    1.2942    1.2904
H   -3.9557    1.7888    0.0347
H   -3.2430    1.1710   -1.4514
H    0.3965   -0.6439    0.0729