15
O[CH]1CCCC1 <=> OC1=CCCC1 + [H]
C    0.0303   -1.2352   -0.0822
C   -0.7825    0.0210   -0.0516
C   -0.0319    1.1339   -0.0683
C    1.4231    0.7706   -0.2360
C    1.4478   -0.7084    0.1973
O   -2.1239   -0.1012    0.0009
H    0.1229    1.4336    1.9266
H   -0.4213    2.1385   -0.1567
H    2.0871    1.3847    0.3717
H    1.7316    0.8869   -1.2791
H   -0.0572   -1.7039   -1.0669
H   -0.3205   -1.9599    0.6529
H    1.6310   -0.7491    1.2715
H    2.2238   -1.2856   -0.3003
H   -2.5265    0.7724    0.0181
