12
[CH2]CC[CH2]
C   -4.4457   -0.8799   -0.0615
C   -5.6725   -1.7183    0.0294
H   -5.6946   -2.5931    0.6694
H   -6.6020   -1.4069   -0.4303
C   -3.1333   -1.6948   -0.0423
H   -4.4103   -0.1638    0.7772
H   -4.4771   -0.2624   -0.9670
C   -1.9065   -0.8564   -0.1332
H   -3.1688   -2.4108   -0.8810
H   -3.1019   -2.3123    0.8632
H   -1.8845    0.0185   -0.7732
H   -0.9771   -1.1677    0.3265

