14
[CH2]CCC[C]=O
C    3.0233   -0.3305   -0.0884
C    1.7719    0.4736   -0.0010
H    3.0425   -1.3652    0.2333
H    3.9650    0.1375   -0.3470
C    0.4936   -0.3760   -0.0129
H    1.7412    1.2048   -0.8206
H    1.7830    1.0848    0.9198
C   -0.7797    0.4709    0.1100
H    0.5236   -1.0982    0.8091
H    0.4489   -0.9626   -0.9351
C   -2.0721   -0.3294    0.1129
H   -0.8680    1.1977   -0.7058
H   -0.7872    1.0666    1.0304
O   -2.2027   -1.5022    0.0521

