14
[CH2]CC(O)=C[CH2]
C   -4.8916   -1.3232   -0.5889
C   -3.8031   -2.0097    0.1780
H   -4.7037   -0.9693   -1.5966
H   -5.9181   -1.3577   -0.2446
C   -2.4626   -1.3430    0.0467
H   -3.7004   -3.0541   -0.1543
H   -4.0937   -2.0663    1.2389
C   -1.2742   -1.9965   -0.2564
C   -0.0301   -1.4093   -0.3410
H    0.1020   -0.3499   -0.1648
H    0.8449   -1.9955   -0.5889
O   -2.4201   -0.0019    0.3089
H   -3.3253    0.3301    0.3480
H   -1.3620   -3.0642   -0.4356

