15
[O]C1CCCC1
C   -0.9295    0.0027    0.1171
C   -0.0263    1.2480    0.2570
C    1.2666    0.8457   -0.4585
H    0.1618    1.4353    1.3210
C    1.5004   -0.5950    0.0259
H    2.1062    1.5114   -0.2459
H    1.0967    0.8536   -1.5388
C    0.0918   -1.2212    0.1463
H    1.9800   -0.5787    1.0098
H    2.1477   -1.1679   -0.6413
H   -0.0570   -1.7788    1.0726
H   -0.1369   -1.8931   -0.6822
O   -1.5165   -0.0822   -1.1106
H   -1.6670   -0.1034    0.9272
H   -0.5100    2.1334   -0.1612

