14
C=CC(=O)CC
C    2.4548    0.0547    0.0000
C    1.1595   -0.7500    0.0000
H    2.5122    0.7001   -0.8786
H    3.3230   -0.6085    0.0000
H    2.5122    0.7000    0.8786
C   -0.0982    0.1057   -0.0000
H    1.1051   -1.4170    0.8710
H    1.1051   -1.4170   -0.8710
C   -1.3979   -0.6382    0.0000
C   -2.5652    0.0030    0.0000
H   -1.3547   -1.7238    0.0000
H   -2.5839    1.0877    0.0000
H   -3.5120   -0.5243    0.0000
O   -0.0532    1.3189    0.0000

