11
C=CC[CH2]
C   -5.2724    1.1512   -0.3512
C   -4.2674    1.6694    0.3479
H   -5.2439    0.1286   -0.7162
H   -6.1613    1.7272   -0.5827
C   -2.9949    0.9431    0.7065
H   -4.3309    2.7007    0.6900
C   -1.7701    1.5831    0.1375
H   -3.0776   -0.1016    0.3620
H   -2.9014    0.8872    1.7989
H   -0.8240    1.5474    0.6631
H   -1.7834    1.9874   -0.8674

