13
O=C1[CH]CCC1
C   -0.9021    0.0246   -0.0171
C   -0.0018   -1.2093    0.1470
C    1.4145   -0.7079   -0.1925
H   -0.3507   -2.0312   -0.4800
H   -0.0738   -1.5437    1.1888
C   -0.0490    1.1872   -0.0358
C    1.3851    0.8185    0.1038
H   -0.4385    2.1961   -0.0950
H    1.7288    1.0272    1.1301
H    2.0439    1.3982   -0.5513
H    1.6145   -0.8606   -1.2564
H    2.1992   -1.2226    0.3637
O   -2.1263    0.0169   -0.0927
