14
O=C1CCCC1
C   -3.4814    0.1349   -0.1234
C   -2.1993    0.9655    0.0052
C   -1.0131    0.0019    0.1261
C   -1.5837   -1.3793   -0.2291
H   -0.6771    0.0356    1.1702
H   -0.1776    0.3386   -0.4898
C   -3.0614   -1.3024    0.2192
H   -3.8116    0.2134   -1.1669
H   -4.2764    0.5532    0.4960
H   -3.6856   -2.0595   -0.2586
H   -3.1270   -1.4610    1.3008
H   -1.0439   -2.2029    0.2416
H   -1.5348   -1.5344   -1.3121
O   -2.1350    2.1681    0.0103

