13
O=C1C[CH]CC1
C   -2.9886    0.6873   -0.1224
C   -1.7389    1.5554    0.0889
C   -0.4932    0.6783   -0.0750
C   -0.9850   -0.7816   -0.0228
H    0.2526    0.9406    0.6770
H   -0.0599    0.9184   -1.0525
C   -2.4650   -0.6990   -0.2662
H   -3.5412    1.0551   -0.9997
H   -3.6723    0.8307    0.7284
H   -3.0901   -1.5686   -0.4205
H   -0.7712   -1.2252    0.9628
H   -0.4782   -1.4251   -0.7504
O   -1.7393    2.7324    0.3401

