10
O=C1C=CC=C1
C   -4.3540    2.6971    0.2754
C   -5.3418    1.5594    0.1538
C   -4.6400    0.4421   -0.0590
C   -3.1715    0.7616   -0.0915
C   -2.9890    2.0713    0.1017
O   -4.6032    3.8621    0.4702
H   -6.4107    1.6870    0.2333
H   -5.0336   -0.5569   -0.1922
H   -2.4046    0.0151   -0.2504
H   -2.0673    2.6322    0.1372

